2nd_assay_top5_active:1_D
  xed2sdf           3D
 
 79 84  0  0  0  0  0  0  0  0999 V2000
    6.6166    3.6735  -24.9798 N   0  0  0  0  0  0  0  0  0  0  0  0
    4.4746    2.9855  -25.1708 C   0  0  0  0  0  0  0  0  0  0  0  0
    5.9646    3.9005  -23.7938 C   0  0  0  0  0  0  0  0  0  0  0  0
    4.6496    3.5065  -23.8468 C   0  0  0  0  0  0  0  0  0  0  0  0
    5.6596    3.1205  -25.7778 C   0  0  0  0  0  0  0  0  0  0  0  0
    3.1956    2.4115  -25.7618 C   0  0  0  0  0  0  0  0  0  0  0  0
    3.0006    0.9285  -25.5138 C   0  0  0  0  0  0  0  0  0  0  0  0
    6.5326    4.4595  -22.6528 C   0  0  0  0  0  0  0  0  0  0  0  0
    2.6706    0.1355  -26.3858 O   0  0  0  0  0  0  0  0  0  0  0  0
    7.8216    4.8315  -22.6108 F   0  0  0  0  0  0  0  0  0  0  0  0
    3.8286    3.6725  -22.7328 C   0  0  0  0  0  0  0  0  0  0  0  0
    4.3736    4.2265  -21.6088 C   0  0  0  0  0  0  0  0  0  0  0  0
    5.7146    4.6155  -21.5668 C   0  0  0  0  0  0  0  0  0  0  0  0
   -1.4184    2.3685  -18.8238 C   0  0  0  0  0  0  0  0  0  0  0  0
   -0.4004    1.9135  -17.7448 C   0  0  0  0  0  0  0  0  0  0  0  0
   -0.8674    0.4565  -17.8778 C   0  0  0  0  0  0  0  0  0  0  0  0
   -1.8504    0.8905  -18.9748 C   0  0  0  0  0  0  0  0  0  0  0  0
   -4.7564    4.9055  -17.7608 C   0  0  0  0  0  0  0  0  0  0  0  0
   -4.1954    4.9595  -19.0138 C   0  0  0  0  0  0  0  0  0  0  0  0
   -3.1374    4.1385  -19.3268 C   0  0  0  0  0  0  0  0  0  0  0  0
   -2.6034    3.2595  -18.4028 C   0  0  0  0  0  0  0  0  0  0  0  0
   -3.1834    3.2205  -17.1488 C   0  0  0  0  0  0  0  0  0  0  0  0
   -4.2494    4.0305  -16.8298 C   0  0  0  0  0  0  0  0  0  0  0  0
   -0.6464    2.8895  -20.0748 C   0  0  0  0  0  0  0  0  0  0  0  0
    0.8166    2.4675  -20.1318 C   0  0  0  0  0  0  0  0  0  0  0  0
    1.6646    3.0805  -19.4978 O   0  0  0  0  0  0  0  0  0  0  0  0
   -6.2064    6.0195  -17.3268 Br  0  0  0  0  0  0  0  0  0  0  0  0
    3.2136    0.6035  -24.2288 N   0  0  0  0  0  0  0  0  0  0  0  0
    1.0906    1.3745  -20.8798 N   0  0  0  0  0  0  0  0  0  0  0  0
    1.9116   -0.9835  -22.5998 C   0  0  0  0  0  0  0  0  0  0  0  0
    2.9106   -0.7595  -23.7638 C   0  0  0  0  0  0  0  0  0  0  0  0
    1.6196   -2.5135  -22.6058 C   0  0  0  0  0  0  0  0  0  0  0  0
    2.5616   -3.5185  -21.9488 C   0  0  0  0  0  0  0  0  0  0  0  0
    4.3436   -5.2675  -20.7668 C   0  0  0  0  0  0  0  0  0  0  0  0
    5.2116   -6.1125  -20.1918 F   0  0  0  0  0  0  0  0  0  0  0  0
    3.1526   -4.9635  -20.1418 C   0  0  0  0  0  0  0  0  0  0  0  0
    4.6416   -4.6995  -21.9858 C   0  0  0  0  0  0  0  0  0  0  0  0
    2.2646   -4.0915  -20.7308 C   0  0  0  0  0  0  0  0  0  0  0  0
    3.7516   -3.8295  -22.5708 C   0  0  0  0  0  0  0  0  0  0  0  0
    0.0806    0.6075  -21.6478 C   0  0  0  0  0  0  0  0  0  0  0  0
    2.4856    0.9105  -20.9578 C   0  0  0  0  0  0  0  0  0  0  0  0
    0.6356   -0.1415  -22.8828 C   0  0  0  0  0  0  0  0  0  0  0  0
    2.5866   -0.6015  -21.2558 C   0  0  0  0  0  0  0  0  0  0  0  0
    7.4566    3.8465  -25.1798 H   0  0  0  0  0  0  0  0  0  0  0  0
    5.8276    2.8435  -26.7228 H   0  0  0  0  0  0  0  0  0  0  0  0
    3.2086    2.5665  -26.7498 H   0  0  0  0  0  0  0  0  0  0  0  0
    2.4376    2.8775  -25.3058 H   0  0  0  0  0  0  0  0  0  0  0  0
    2.8686    3.3945  -22.7558 H   0  0  0  0  0  0  0  0  0  0  0  0
    3.8006    4.3555  -20.7998 H   0  0  0  0  0  0  0  0  0  0  0  0
    6.0846    5.0155  -20.7278 H   0  0  0  0  0  0  0  0  0  0  0  0
   -0.5614    2.3115  -16.8418 H   0  0  0  0  0  0  0  0  0  0  0  0
    0.5686    2.1365  -17.8488 H   0  0  0  0  0  0  0  0  0  0  0  0
   -1.3014    0.0855  -17.0568 H   0  0  0  0  0  0  0  0  0  0  0  0
   -0.2094   -0.2785  -18.0428 H   0  0  0  0  0  0  0  0  0  0  0  0
   -2.8094    0.7225  -18.7498 H   0  0  0  0  0  0  0  0  0  0  0  0
   -1.8154    0.4535  -19.8738 H   0  0  0  0  0  0  0  0  0  0  0  0
   -4.5554    5.5945  -19.6968 H   0  0  0  0  0  0  0  0  0  0  0  0
   -2.7444    4.1775  -20.2458 H   0  0  0  0  0  0  0  0  0  0  0  0
   -2.8204    2.5925  -16.4608 H   0  0  0  0  0  0  0  0  0  0  0  0
   -4.6554    3.9825  -15.9168 H   0  0  0  0  0  0  0  0  0  0  0  0
   -0.6864    3.8885  -20.0768 H   0  0  0  0  0  0  0  0  0  0  0  0
   -1.0904    2.4825  -20.8738 H   0  0  0  0  0  0  0  0  0  0  0  0
    3.5176    1.2025  -23.6588 H   0  0  0  0  0  0  0  0  0  0  0  0
    2.5536   -1.2615  -24.5518 H   0  0  0  0  0  0  0  0  0  0  0  0
    3.7816   -1.0665  -23.3788 H   0  0  0  0  0  0  0  0  0  0  0  0
    1.5466   -2.7825  -23.5658 H   0  0  0  0  0  0  0  0  0  0  0  0
    0.8106   -2.5755  -22.0228 H   0  0  0  0  0  0  0  0  0  0  0  0
    2.9336   -5.3765  -19.2588 H   0  0  0  0  0  0  0  0  0  0  0  0
    5.5036   -4.9185  -22.4438 H   0  0  0  0  0  0  0  0  0  0  0  0
    1.4016   -3.8745  -20.2748 H   0  0  0  0  0  0  0  0  0  0  0  0
    3.9696   -3.4185  -23.4558 H   0  0  0  0  0  0  0  0  0  0  0  0
   -0.6254    1.2445  -21.9578 H   0  0  0  0  0  0  0  0  0  0  0  0
   -0.2704   -0.0945  -21.0278 H   0  0  0  0  0  0  0  0  0  0  0  0
    2.9386    1.0995  -20.0858 H   0  0  0  0  0  0  0  0  0  0  0  0
    2.9286    1.3985  -21.7098 H   0  0  0  0  0  0  0  0  0  0  0  0
    0.8516    0.5335  -23.5878 H   0  0  0  0  0  0  0  0  0  0  0  0
   -0.0734   -0.7855  -23.1688 H   0  0  0  0  0  0  0  0  0  0  0  0
    2.1426   -1.1065  -20.5158 H   0  0  0  0  0  0  0  0  0  0  0  0
    3.5566   -0.8355  -21.3248 H   0  0  0  0  0  0  0  0  0  0  0  0
  2  5  2  0
  3  1  1  0
  4  2  1  0
  4  3  2  0
  5  1  1  0
  6  2  1  0
  7  6  1  0
  7 28  1  0
  8  3  1  0
  9  7  2  0
 10  8  1  0
 11  4  1  0
 12 11  2  0
 13  8  2  0
 13 12  1  0
 14 15  1  0
 14 24  1  0
 15 16  1  0
 16 17  1  0
 17 14  1  0
 18 19  2  0
 18 27  1  0
 19 20  1  0
 20 21  2  0
 21 14  1  0
 21 22  1  0
 22 23  2  0
 23 18  1  0
 24 25  1  0
 25 26  2  0
 29 25  1  0
 29 40  1  0
 29 41  1  0
 30 31  1  0
 31 28  1  0
 32 30  1  0
 33 32  1  0
 34 37  2  0
 35 34  1  0
 36 34  1  0
 36 38  2  0
 37 39  1  0
 38 33  1  0
 39 33  2  0
 40 42  1  0
 41 43  1  0
 42 30  1  0
 43 30  1  0
  1 44  1  0
  5 45  1  0
  6 46  1  0
  6 47  1  0
 11 48  1  0
 12 49  1  0
 13 50  1  0
 15 51  1  0
 15 52  1  0
 16 53  1  0
 16 54  1  0
 17 55  1  0
 17 56  1  0
 19 57  1  0
 20 58  1  0
 22 59  1  0
 23 60  1  0
 24 61  1  0
 24 62  1  0
 28 63  1  0
 31 64  1  0
 31 65  1  0
 32 66  1  0
 32 67  1  0
 36 68  1  0
 37 69  1  0
 38 70  1  0
 39 71  1  0
 40 72  1  0
 40 73  1  0
 41 74  1  0
 41 75  1  0
 42 76  1  0
 42 77  1  0
 43 78  1  0
 43 79  1  0
M  END
>  <BioMolTech Lead Finder dG>
-13.029

>  <BioMolTech Lead Finder VSscore>
-14.774

>  <BioMolTech Lead Finder Rank score>
-11.647

>  <BioMolTech Lead Finder LE>
-0.303

>  <BioMolTech Lead Finder Structure Name>
Ligand_1.sdf

>  <BioMolTech Lead Finder SDF id>
0

>  <BioMolTech Lead Finder Pose rank>
0

>  <BioMolTech Lead Finder version>
2112 1, 24 December 2021

>  <KLNUMBER>
KL-010-0507-892

>  <Smiles>
[nH](c1)c2c(c1CC(NCC(CC3)(CCN3C(=O)CC4(c(ccc5Br)cc5)CCC4)Cc(cc6)ccc6F)=O)cccc2F

>  <NO>
14019

>  <target1>
NOFL2

>  <target2>
.

>  <target3>
.

>  <KKNUMBER>
.

>  <PPI_type>
non-flat

>  <NPR1>
0.581400

>  <NPR2>
0.794937

>  <NPR12>
1.376337

>  <percent_inhibition_100uM>
36.1

>  <percent_inhibition_100uM_counter>
-62.4

>  <activity>
active

>  <Index>
1

>  <Field Similarity_cresset>
0.000

>  <Raw Field Score_cresset>
0.000

>  <Penalised Field Score_cresset>
0.000

>  <Shape Similarity_cresset>
0.000

>  <Raw Shape Score_cresset>
0.000

>  <Penalised Shape Score_cresset>
0.000

>  <Excluded Volume Clash Penalty_cresset>
0.000

>  <Field Value Penalty_cresset>
0.000

>  <LF dG>
-13.029

>  <LF VSscore>
-14.774

>  <LF Rank Score>
-11.647

>  <LF LE>
-0.303

>  <Preferred Pose_cresset>
true

>  <Favorite_cresset>
true

>  <Protein_cresset>
4XMB_P

>  <MW_cresset>
648.6

>  <#Atoms_cresset>
43

>  <SlogP_cresset>
7.8

>  <TPSA_cresset>
65.2

>  <Flexibility_cresset>
9.2

>  <Rof5_cresset>
2

>  <Confs_cresset>
0

>  <Poses_cresset>
10

>  <_cresset_fieldpoints2>
 2
    -5       5.488634       0.189504     -24.724798     -5.0500
    -5       4.263634       6.620504     -23.871798     -4.2960
    -5       2.378634       0.328504     -28.083797    -10.6235
    -5       1.441634       4.465504     -18.469797    -12.2990
    -5       8.770634       6.064504     -20.161798     -1.6750
    -5      -5.801366       2.194504     -18.819798     -3.5845
    -5       2.193634      -6.658496     -22.827797     -2.8170
    -5       5.030634      -2.374496     -19.699799     -2.3650
    -5       5.264634      -7.591496     -17.711798     -1.4445
    -5       7.771634      -7.076496     -21.091799     -1.5480
    -6       8.666634       3.673504     -26.758799      6.1850
    -6       6.014634      -3.520496     -24.532799      2.6300
    -6      -2.870366       1.521504     -22.020798      5.7510
    -6       0.722634       3.076504     -23.639797      4.7320
    -6       5.239634       0.579504     -22.179798      2.9940
    -6      -2.565366       0.941504     -15.064798      2.8525
    -6      -8.757366       7.830504     -16.679798      1.3765
    -6       3.057634      -3.537496     -25.440798      2.0205
    -6      -0.360366      -2.239496     -20.050798      6.5095
    -7       2.623634       5.805504     -25.140799     -1.9245
    -7       0.470634      -0.829496     -25.991798     -2.4575
    -7       2.805634      -3.512496     -25.738798     -2.0835
    -7       4.432634       6.833504     -24.224798     -2.1295
    -7       5.561634       0.717504     -22.301798     -4.2055
    -7       3.763634       2.983504     -18.565798     -2.3160
    -7       2.332634      -0.184496     -17.936798     -2.6380
    -7       1.468634       5.356504     -20.517797     -2.3675
    -7       0.098634       5.142504     -17.794798     -2.6385
    -7      -1.852366       1.235504     -14.741798     -1.9450
    -7       1.590634      -1.997496     -18.307798     -2.6035
    -7      -5.332366       1.510504     -19.204798     -2.4655
    -7      -3.890366       0.163504     -16.384798     -2.1300
    -7      -3.369366       1.720504     -21.692799     -2.8150
    -7       0.646634       3.165504     -23.343798     -3.8765
    -7       3.128634       2.318504     -17.880798     -2.2055
    -7      -0.264366      -2.176496     -19.744799     -3.7260
    -7       4.983634      -2.094496     -19.636799     -2.7600
    -7       1.972634      -6.799496     -22.907799     -1.9230
    -7       5.893634      -1.332496     -21.990797     -2.5740
    -8       5.162634       4.062504     -22.684797      7.0995
    -8       1.991634      -1.158496     -22.529799      6.3890
    -8       4.296634       2.982504     -25.039799      5.3700
    -8       3.453634      -4.386496     -21.353798      7.2440
    -8      -1.195366       1.509504     -18.380798      6.9870
    -8      -3.677366       4.078504     -18.083797      7.2145
    -8      -5.114366       5.183504     -17.659798      5.6145

$$$$
2nd_assay_top5_active:2_D
  xed2sdf           3D
 
 80 85  0  0  0  0  0  0  0  0999 V2000
    7.1312    4.4241  -23.3710 N   0  0  0  0  0  0  0  0  0  0  0  0
    5.3032    4.2971  -22.0490 C   0  0  0  0  0  0  0  0  0  0  0  0
    6.0662    3.9851  -24.1190 C   0  0  0  0  0  0  0  0  0  0  0  0
    4.9192    3.8901  -23.3690 C   0  0  0  0  0  0  0  0  0  0  0  0
    6.6072    4.5911  -22.1230 C   0  0  0  0  0  0  0  0  0  0  0  0
    4.3962    4.3441  -20.8280 C   0  0  0  0  0  0  0  0  0  0  0  0
    4.1282    3.0161  -20.1460 C   0  0  0  0  0  0  0  0  0  0  0  0
    6.1042    3.6581  -25.4720 C   0  0  0  0  0  0  0  0  0  0  0  0
    4.9322    2.4691  -19.4020 O   0  0  0  0  0  0  0  0  0  0  0  0
    7.2302    3.7471  -26.1980 F   0  0  0  0  0  0  0  0  0  0  0  0
    3.7332    3.4591  -23.9620 C   0  0  0  0  0  0  0  0  0  0  0  0
    3.7572    3.1381  -25.2900 C   0  0  0  0  0  0  0  0  0  0  0  0
    4.9322    3.2361  -26.0400 C   0  0  0  0  0  0  0  0  0  0  0  0
    3.7582   -3.5339  -23.7140 C   0  0  0  0  0  0  0  0  0  0  0  0
    4.3672   -4.9449  -23.9000 C   0  0  0  0  0  0  0  0  0  0  0  0
    5.3052   -4.7169  -22.7030 C   0  0  0  0  0  0  0  0  0  0  0  0
    4.6552   -3.3419  -22.4700 C   0  0  0  0  0  0  0  0  0  0  0  0
    4.6492   -0.6329  -26.7960 C   0  0  0  0  0  0  0  0  0  0  0  0
    4.6162   -1.9719  -27.1040 C   0  0  0  0  0  0  0  0  0  0  0  0
    4.3472   -2.8999  -26.1220 C   0  0  0  0  0  0  0  0  0  0  0  0
    4.0972   -2.5139  -24.8200 C   0  0  0  0  0  0  0  0  0  0  0  0
    4.1292   -1.1619  -24.5340 C   0  0  0  0  0  0  0  0  0  0  0  0
    4.4062   -0.2279  -25.5060 C   0  0  0  0  0  0  0  0  0  0  0  0
    2.2492   -3.6639  -23.3440 C   0  0  0  0  0  0  0  0  0  0  0  0
    1.3352   -2.4729  -23.6050 C   0  0  0  0  0  0  0  0  0  0  0  0
    0.6902   -2.3479  -24.6380 O   0  0  0  0  0  0  0  0  0  0  0  0
    4.9312   -2.5349  -28.8700 Br  0  0  0  0  0  0  0  0  0  0  0  0
    2.9132    2.5311  -20.4620 N   0  0  0  0  0  0  0  0  0  0  0  0
    0.4442   -0.3809  -22.7430 C   0  0  0  0  0  0  0  0  0  0  0  0
    1.2582   -1.5979  -22.5790 N   0  0  0  0  0  0  0  0  0  0  0  0
    1.9662   -1.7799  -21.2930 C   0  0  0  0  0  0  0  0  0  0  0  0
    1.2802   -0.9819  -20.1600 C   0  0  0  0  0  0  0  0  0  0  0  0
    1.1592    0.5481  -20.4400 C   0  0  0  0  0  0  0  0  0  0  0  0
    1.0562    0.8121  -21.9740 C   0  0  0  0  0  0  0  0  0  0  0  0
    2.4862    1.2121  -19.9620 C   0  0  0  0  0  0  0  0  0  0  0  0
   -0.0568    1.0981  -19.6560 C   0  0  0  0  0  0  0  0  0  0  0  0
   -0.5658    0.4591  -18.5390 C   0  0  0  0  0  0  0  0  0  0  0  0
   -1.6688    0.9331  -17.8710 C   0  0  0  0  0  0  0  0  0  0  0  0
   -2.3158    2.0741  -18.3010 C   0  0  0  0  0  0  0  0  0  0  0  0
   -1.8148    2.7291  -19.4120 C   0  0  0  0  0  0  0  0  0  0  0  0
   -0.7078    2.2461  -20.0700 C   0  0  0  0  0  0  0  0  0  0  0  0
   -3.3988    2.4951  -17.6320 O   0  0  0  0  0  0  0  0  0  0  0  0
   -3.4128    3.8381  -17.1070 C   0  0  0  0  0  0  0  0  0  0  0  0
    7.9592    4.5611  -23.6340 H   0  0  0  0  0  0  0  0  0  0  0  0
    7.1442    4.9031  -21.3400 H   0  0  0  0  0  0  0  0  0  0  0  0
    3.5182    4.7271  -21.1130 H   0  0  0  0  0  0  0  0  0  0  0  0
    4.8842    4.8971  -20.1530 H   0  0  0  0  0  0  0  0  0  0  0  0
    2.8892    3.3871  -23.4310 H   0  0  0  0  0  0  0  0  0  0  0  0
    2.9162    2.8271  -25.7340 H   0  0  0  0  0  0  0  0  0  0  0  0
    4.9172    2.9921  -27.0100 H   0  0  0  0  0  0  0  0  0  0  0  0
    4.8402   -5.0739  -24.7720 H   0  0  0  0  0  0  0  0  0  0  0  0
    3.7722   -5.7489  -23.9230 H   0  0  0  0  0  0  0  0  0  0  0  0
    6.2752   -4.6789  -22.9420 H   0  0  0  0  0  0  0  0  0  0  0  0
    5.3582   -5.3859  -21.9620 H   0  0  0  0  0  0  0  0  0  0  0  0
    5.2902   -2.5729  -22.5390 H   0  0  0  0  0  0  0  0  0  0  0  0
    4.2422   -3.1269  -21.5840 H   0  0  0  0  0  0  0  0  0  0  0  0
    4.8492    0.0421  -27.5060 H   0  0  0  0  0  0  0  0  0  0  0  0
    4.3322   -3.8719  -26.3570 H   0  0  0  0  0  0  0  0  0  0  0  0
    3.9472   -0.8549  -23.5990 H   0  0  0  0  0  0  0  0  0  0  0  0
    4.4292    0.7441  -25.2740 H   0  0  0  0  0  0  0  0  0  0  0  0
    2.2002   -3.8689  -22.3660 H   0  0  0  0  0  0  0  0  0  0  0  0
    1.9062   -4.3749  -23.9570 H   0  0  0  0  0  0  0  0  0  0  0  0
    2.3752    2.9911  -20.9850 H   0  0  0  0  0  0  0  0  0  0  0  0
   -0.4778   -0.5549  -22.3990 H   0  0  0  0  0  0  0  0  0  0  0  0
    0.4192   -0.1469  -23.7150 H   0  0  0  0  0  0  0  0  0  0  0  0
    2.9102   -1.4649  -21.3920 H   0  0  0  0  0  0  0  0  0  0  0  0
    1.9442   -2.7499  -21.0540 H   0  0  0  0  0  0  0  0  0  0  0  0
    1.8082   -1.1089  -19.3200 H   0  0  0  0  0  0  0  0  0  0  0  0
    0.3472   -1.3329  -20.0840 H   0  0  0  0  0  0  0  0  0  0  0  0
    0.4842    1.6191  -22.1240 H   0  0  0  0  0  0  0  0  0  0  0  0
    1.9842    0.9511  -22.3190 H   0  0  0  0  0  0  0  0  0  0  0  0
    3.2202    0.5711  -20.1880 H   0  0  0  0  0  0  0  0  0  0  0  0
    2.2962    1.4021  -18.9990 H   0  0  0  0  0  0  0  0  0  0  0  0
   -0.1168   -0.3709  -18.2080 H   0  0  0  0  0  0  0  0  0  0  0  0
   -2.0068    0.4471  -17.0660 H   0  0  0  0  0  0  0  0  0  0  0  0
   -2.2618    3.5611  -19.7400 H   0  0  0  0  0  0  0  0  0  0  0  0
   -0.3648    2.7391  -20.8690 H   0  0  0  0  0  0  0  0  0  0  0  0
   -2.5488    4.2861  -17.3370 H   0  0  0  0  0  0  0  0  0  0  0  0
   -4.1738    4.3491  -17.5050 H   0  0  0  0  0  0  0  0  0  0  0  0
   -3.5238    3.8101  -16.1140 H   0  0  0  0  0  0  0  0  0  0  0  0
  2  5  2  0
  3  1  1  0
  4  2  1  0
  4  3  2  0
  5  1  1  0
  6  2  1  0
  7  6  1  0
  7 28  1  0
  8  3  1  0
  9  7  2  0
 10  8  1  0
 11  4  1  0
 12 11  2  0
 13  8  2  0
 13 12  1  0
 14 15  1  0
 14 24  1  0
 15 16  1  0
 16 17  1  0
 17 14  1  0
 18 19  2  0
 19 20  1  0
 19 27  1  0
 20 21  2  0
 21 14  1  0
 21 22  1  0
 22 23  2  0
 23 18  1  0
 24 25  1  0
 25 26  2  0
 29 30  1  0
 29 34  1  0
 30 25  1  0
 30 31  1  0
 31 32  1  0
 32 33  1  0
 33 34  1  0
 33 35  1  0
 33 36  1  0
 35 28  1  0
 36 37  2  0
 37 38  1  0
 38 39  2  0
 39 40  1  0
 39 42  1  0
 40 41  2  0
 41 36  1  0
 42 43  1  0
  1 44  1  0
  5 45  1  0
  6 46  1  0
  6 47  1  0
 11 48  1  0
 12 49  1  0
 13 50  1  0
 15 51  1  0
 15 52  1  0
 16 53  1  0
 16 54  1  0
 17 55  1  0
 17 56  1  0
 18 57  1  0
 20 58  1  0
 22 59  1  0
 23 60  1  0
 24 61  1  0
 24 62  1  0
 28 63  1  0
 29 64  1  0
 29 65  1  0
 31 66  1  0
 31 67  1  0
 32 68  1  0
 32 69  1  0
 34 70  1  0
 34 71  1  0
 35 72  1  0
 35 73  1  0
 37 74  1  0
 38 75  1  0
 40 76  1  0
 41 77  1  0
 43 78  1  0
 43 79  1  0
 43 80  1  0
M  END
>  <BioMolTech Lead Finder dG>
-12.317

>  <BioMolTech Lead Finder VSscore>
-13.73

>  <BioMolTech Lead Finder Rank score>
-12.231

>  <BioMolTech Lead Finder LE>
-0.286

>  <BioMolTech Lead Finder Structure Name>
Ligand_1.sdf

>  <BioMolTech Lead Finder SDF id>
0

>  <BioMolTech Lead Finder Pose rank>
3

>  <BioMolTech Lead Finder version>
2112 1, 24 December 2021

>  <KLNUMBER>
KL-010-0196-875

>  <Smiles>
[nH](c1)c2c(c1CC(NCC(c3ccc(OC)cc3)(CC4)CCN4C(=O)CC5(c(ccc6)cc6Br)CCC5)=O)cccc2F

>  <NO>
14043

>  <target1>
NOFL2

>  <target2>
.

>  <target3>
.

>  <KKNUMBER>
.

>  <PPI_type>
non-flat

>  <NPR1>
0.544647

>  <NPR2>
0.877920

>  <NPR12>
1.422567

>  <percent_inhibition_100uM>
32.9

>  <percent_inhibition_100uM_counter>
-50.5

>  <activity>
active

>  <Index>
2

>  <Field Similarity_cresset>
0.000

>  <Raw Field Score_cresset>
0.000

>  <Penalised Field Score_cresset>
0.000

>  <Shape Similarity_cresset>
0.000

>  <Raw Shape Score_cresset>
0.000

>  <Penalised Shape Score_cresset>
0.000

>  <Excluded Volume Clash Penalty_cresset>
0.000

>  <Field Value Penalty_cresset>
0.000

>  <LF dG>
-12.317

>  <LF VSscore>
-13.73

>  <LF Rank Score>
-12.231

>  <LF LE>
-0.286

>  <Preferred Pose_cresset>
true

>  <Favorite_cresset>
true

>  <Protein_cresset>
4XMB_P

>  <MW_cresset>
646.6

>  <#Atoms_cresset>
43

>  <SlogP_cresset>
7.2

>  <TPSA_cresset>
74.4

>  <Flexibility_cresset>
7.9

>  <Rof5_cresset>
2

>  <Confs_cresset>
0

>  <Poses_cresset>
10

>  <_cresset_fieldpoints2>
 2
    -5       6.574234       2.826140     -19.007017    -11.3890
    -5       7.163234      -1.770860     -25.168018     -5.9640
    -5       5.240234       6.816141     -24.313017     -3.3570
    -5       1.021993      -3.062233     -26.187939    -15.5496
    -5       2.088234       3.582140     -18.292017     -3.0550
    -5      -3.413766       0.033140     -20.298018     -4.1825
    -5      -5.147766       1.097140     -18.305017     -4.6820
    -5       1.147234       3.092140     -17.550018     -2.8650
    -6       9.677235       5.331141     -22.972017      5.7245
    -6       1.116234       3.982140     -22.129017     11.3960
    -6       6.700234       6.613141     -19.834017      2.8585
    -6      -2.487766       5.730140     -19.526018      4.7185
    -6       4.165234       1.910140     -28.695017      2.4355
    -6       3.337234      -3.369860     -19.290018      5.1625
    -6       0.806234      -2.239860     -17.480019      4.6900
    -6       4.482234      -6.130859     -26.847017      1.2090
    -7       4.448234       6.751141     -25.067017     -2.1230
    -7       7.323235      -2.681859     -24.550018     -2.9215
    -7       7.032234       3.541140     -18.952017     -1.7995
    -7       0.874234       4.257140     -22.368017     -3.1355
    -7       2.218234      -0.189860     -16.931017     -2.1975
    -7       0.606234       2.269140     -24.796017     -2.4270
    -7       1.398234       0.775140     -25.784018     -2.9785
    -7       1.218234      -0.697860     -26.186018     -3.2445
    -7       2.725234       1.607140     -28.121017     -2.0680
    -7       2.149234      -5.233860     -26.384018     -2.4595
    -7       1.271234      -3.563859     -26.580017     -2.7160
    -7       2.969234      -5.083859     -20.286018     -2.4220
    -7       6.549234       1.444140     -28.489017     -2.1515
    -7       4.791234       0.824140     -22.122017     -5.0300
    -7      -0.322766      -2.866860     -18.072018     -1.7235
    -7      -0.865766      -3.190860     -21.633018     -2.6685
    -7      -5.107766       3.228140     -19.908018     -1.5980
    -7      -2.396766      -0.959860     -20.845018     -2.7680
    -7      -3.482766       1.227140     -15.053018     -1.5905
    -7       1.616234       4.092140     -18.692017     -3.1055
    -8       4.901234       3.541140     -24.718018      7.1255
    -8       1.163234       0.398140     -20.478018      6.3110
    -8       5.106235       4.238140     -22.073017      5.3505
    -8       4.374234      -1.570860     -25.803017      7.2290
    -8       4.101234      -2.608860     -24.655018      5.8205
    -8      -1.151766       1.571140     -18.997017      7.0935
    -8       4.454234      -4.041860     -23.276018      6.9830
    -8       4.693234      -2.114860     -27.537018      5.6315
    -8       0.629234       0.142140     -19.682018      6.2135
    -8      -3.359766       4.658140     -16.834019      2.5470

$$$$
2nd_assay_top5_active:3_D
  xed2sdf           3D
 
 73 78  0  0  0  0  0  0  0  0999 V2000
    5.5619    3.9310  -23.6668 C   0  0  0  0  0  0  0  0  0  0  0  0
    6.5539    3.8330  -24.6978 C   0  0  0  0  0  0  0  0  0  0  0  0
    6.1949    4.4240  -22.5968 C   0  0  0  0  0  0  0  0  0  0  0  0
    7.5219    4.6680  -22.8168 N   0  0  0  0  0  0  0  0  0  0  0  0
    4.1009    3.5300  -23.7878 C   0  0  0  0  0  0  0  0  0  0  0  0
    7.7119    4.2920  -24.1188 C   0  0  0  0  0  0  0  0  0  0  0  0
    3.2659    3.7320  -22.5398 C   0  0  0  0  0  0  0  0  0  0  0  0
    6.5679    3.4080  -26.0268 C   0  0  0  0  0  0  0  0  0  0  0  0
    3.1419    4.8290  -22.0148 O   0  0  0  0  0  0  0  0  0  0  0  0
    5.4529    2.9580  -26.6198 F   0  0  0  0  0  0  0  0  0  0  0  0
    8.9219    3.9300  -26.1038 C   0  0  0  0  0  0  0  0  0  0  0  0
    8.9199    4.3520  -24.8028 C   0  0  0  0  0  0  0  0  0  0  0  0
    7.7539    3.4620  -26.7108 C   0  0  0  0  0  0  0  0  0  0  0  0
    2.1969   -3.4480  -21.8378 C   0  0  0  0  0  0  0  0  0  0  0  0
    2.5259   -3.5730  -20.3388 C   0  0  0  0  0  0  0  0  0  0  0  0
    1.5489   -4.5690  -21.0058 C   0  0  0  0  0  0  0  0  0  0  0  0
    1.3689   -2.2860  -22.4068 C   0  0  0  0  0  0  0  0  0  0  0  0
    3.2849   -3.9240  -22.7968 C   0  0  0  0  0  0  0  0  0  0  0  0
    0.3849   -2.5790  -23.0738 O   0  0  0  0  0  0  0  0  0  0  0  0
    4.5009   -4.3390  -22.2988 C   0  0  0  0  0  0  0  0  0  0  0  0
    3.0629   -3.9660  -24.1568 C   0  0  0  0  0  0  0  0  0  0  0  0
    5.2619   -4.8180  -24.5058 C   0  0  0  0  0  0  0  0  0  0  0  0
    5.4869   -4.7830  -23.1478 C   0  0  0  0  0  0  0  0  0  0  0  0
    4.0479   -4.4090  -25.0098 C   0  0  0  0  0  0  0  0  0  0  0  0
    6.6049   -5.4260  -25.6728 Br  0  0  0  0  0  0  0  0  0  0  0  0
    2.7309    2.5860  -22.0818 N   0  0  0  0  0  0  0  0  0  0  0  0
    1.7559   -0.9950  -22.2258 N   0  0  0  0  0  0  0  0  0  0  0  0
    1.2589    1.2510  -20.3768 C   0  0  0  0  0  0  0  0  0  0  0  0
   -0.9701    2.0010  -19.1038 C   0  0  0  0  0  0  0  0  0  0  0  0
    0.4749    1.5070  -19.0498 C   0  0  0  0  0  0  0  0  0  0  0  0
    1.9969    2.5610  -20.8038 C   0  0  0  0  0  0  0  0  0  0  0  0
   -2.0371    1.1630  -18.8598 C   0  0  0  0  0  0  0  0  0  0  0  0
   -3.3281    1.6430  -18.9238 C   0  0  0  0  0  0  0  0  0  0  0  0
   -4.6721    0.5800  -18.6308 Cl  0  0  0  0  0  0  0  0  0  0  0  0
   -2.5001    3.8080  -19.4648 C   0  0  0  0  0  0  0  0  0  0  0  0
    2.8899   -0.4460  -21.4428 C   0  0  0  0  0  0  0  0  0  0  0  0
    0.8579    0.0850  -22.6718 C   0  0  0  0  0  0  0  0  0  0  0  0
    2.2629    0.0890  -20.1388 C   0  0  0  0  0  0  0  0  0  0  0  0
    0.2239    0.7930  -21.4498 C   0  0  0  0  0  0  0  0  0  0  0  0
   -1.2131    3.3260  -19.4038 C   0  0  0  0  0  0  0  0  0  0  0  0
   -3.5591    2.9660  -19.2258 C   0  0  0  0  0  0  0  0  0  0  0  0
    5.7419    4.5970  -21.7228 H   0  0  0  0  0  0  0  0  0  0  0  0
    8.1129    4.9930  -22.2518 H   0  0  0  0  0  0  0  0  0  0  0  0
    4.0649    2.5620  -24.0338 H   0  0  0  0  0  0  0  0  0  0  0  0
    3.7069    4.1340  -24.4808 H   0  0  0  0  0  0  0  0  0  0  0  0
    9.7729    3.9570  -26.6288 H   0  0  0  0  0  0  0  0  0  0  0  0
    9.7529    4.6880  -24.3628 H   0  0  0  0  0  0  0  0  0  0  0  0
    7.7839    3.1610  -27.6638 H   0  0  0  0  0  0  0  0  0  0  0  0
    2.1869   -2.8910  -19.6908 H   0  0  0  0  0  0  0  0  0  0  0  0
    3.3669   -3.6570  -19.8038 H   0  0  0  0  0  0  0  0  0  0  0  0
    0.5729   -4.5370  -20.7908 H   0  0  0  0  0  0  0  0  0  0  0  0
    1.4939   -5.5650  -21.0818 H   0  0  0  0  0  0  0  0  0  0  0  0
    4.6669   -4.3170  -21.3128 H   0  0  0  0  0  0  0  0  0  0  0  0
    2.1809   -3.6730  -24.5268 H   0  0  0  0  0  0  0  0  0  0  0  0
    6.3679   -5.0810  -22.7798 H   0  0  0  0  0  0  0  0  0  0  0  0
    3.8819   -4.4340  -25.9948 H   0  0  0  0  0  0  0  0  0  0  0  0
    2.8059    1.8440  -22.5478 H   0  0  0  0  0  0  0  0  0  0  0  0
    0.4679    0.6440  -18.5438 H   0  0  0  0  0  0  0  0  0  0  0  0
    0.9669    2.2730  -18.6368 H   0  0  0  0  0  0  0  0  0  0  0  0
    2.6549    2.7760  -20.0818 H   0  0  0  0  0  0  0  0  0  0  0  0
    1.2559    3.2180  -20.9428 H   0  0  0  0  0  0  0  0  0  0  0  0
   -1.8741    0.2030  -18.6348 H   0  0  0  0  0  0  0  0  0  0  0  0
   -2.6641    4.7700  -19.6828 H   0  0  0  0  0  0  0  0  0  0  0  0
    3.3399    0.2920  -21.9468 H   0  0  0  0  0  0  0  0  0  0  0  0
    3.5889   -1.1380  -21.2638 H   0  0  0  0  0  0  0  0  0  0  0  0
    0.1349   -0.3000  -23.2458 H   0  0  0  0  0  0  0  0  0  0  0  0
    1.3869    0.7530  -23.1958 H   0  0  0  0  0  0  0  0  0  0  0  0
    2.9969    0.4160  -19.5428 H   0  0  0  0  0  0  0  0  0  0  0  0
    1.7539   -0.6640  -19.7218 H   0  0  0  0  0  0  0  0  0  0  0  0
   -0.4211    0.1620  -21.0188 H   0  0  0  0  0  0  0  0  0  0  0  0
   -0.2221    1.6190  -21.7918 H   0  0  0  0  0  0  0  0  0  0  0  0
   -0.4451    3.9420  -19.5798 H   0  0  0  0  0  0  0  0  0  0  0  0
   -4.4961    3.3130  -19.2708 H   0  0  0  0  0  0  0  0  0  0  0  0
  2  1  1  0
  3  1  2  0
  4  3  1  0
  4  6  1  0
  5  1  1  0
  6  2  2  0
  7  5  1  0
  7 26  1  0
  8  2  1  0
  9  7  2  0
 10  8  1  0
 11 12  2  0
 11 13  1  0
 12  6  1  0
 13  8  2  0
 15 14  1  0
 15 16  1  0
 16 14  1  0
 17 14  1  0
 18 14  1  0
 19 17  2  0
 20 18  2  0
 21 18  1  0
 22 24  1  0
 23 20  1  0
 23 22  2  0
 24 21  2  0
 25 22  1  0
 27 17  1  0
 27 37  1  0
 28 31  1  0
 29 30  1  0
 30 28  1  0
 31 26  1  0
 32 29  2  0
 33 32  1  0
 34 33  1  0
 35 40  2  0
 36 27  1  0
 36 38  1  0
 37 39  1  0
 38 28  1  0
 39 28  1  0
 40 29  1  0
 41 33  2  0
 41 35  1  0
  3 42  1  0
  4 43  1  0
  5 44  1  0
  5 45  1  0
 11 46  1  0
 12 47  1  0
 13 48  1  0
 15 49  1  0
 15 50  1  0
 16 51  1  0
 16 52  1  0
 20 53  1  0
 21 54  1  0
 23 55  1  0
 24 56  1  0
 26 57  1  0
 30 58  1  0
 30 59  1  0
 31 60  1  0
 31 61  1  0
 32 62  1  0
 35 63  1  0
 36 64  1  0
 36 65  1  0
 37 66  1  0
 37 67  1  0
 38 68  1  0
 38 69  1  0
 39 70  1  0
 39 71  1  0
 40 72  1  0
 41 73  1  0
M  END
>  <BioMolTech Lead Finder dG>
-12.547

>  <BioMolTech Lead Finder VSscore>
-14.117

>  <BioMolTech Lead Finder Rank score>
-12.245

>  <BioMolTech Lead Finder LE>
-0.306

>  <BioMolTech Lead Finder Structure Name>
Ligand_1.sdf

>  <BioMolTech Lead Finder SDF id>
0

>  <BioMolTech Lead Finder Pose rank>
1

>  <BioMolTech Lead Finder version>
2112 1, 24 December 2021

>  <KLNUMBER>
KL-010-0528-559

>  <Smiles>
c1(CC(NCC(CC2)(CCN2C(=O)C3(c4ccc(cc4)Br)CC3)Cc5cccc(Cl)c5)=O)c[nH]c(cccc6F)c16

>  <NO>
14741

>  <target1>
NOFL2

>  <target2>
.

>  <target3>
.

>  <KKNUMBER>
.

>  <PPI_type>
non-flat

>  <NPR1>
0.542347

>  <NPR2>
0.854390

>  <NPR12>
1.396737

>  <percent_inhibition_100uM>
32.1

>  <percent_inhibition_100uM_counter>
-89

>  <activity>
active

>  <Index>
3

>  <Field Similarity_cresset>
0.000

>  <Raw Field Score_cresset>
0.000

>  <Penalised Field Score_cresset>
0.000

>  <Shape Similarity_cresset>
0.000

>  <Raw Shape Score_cresset>
0.000

>  <Penalised Shape Score_cresset>
0.000

>  <Excluded Volume Clash Penalty_cresset>
0.000

>  <Field Value Penalty_cresset>
0.000

>  <LF dG>
-12.547

>  <LF VSscore>
-14.117

>  <LF Rank Score>
-12.245

>  <LF LE>
-0.306

>  <Preferred Pose_cresset>
true

>  <Favorite_cresset>
true

>  <Protein_cresset>
4XMB_P

>  <MW_cresset>
637

>  <#Atoms_cresset>
41

>  <SlogP_cresset>
7.3

>  <TPSA_cresset>
65.2

>  <Flexibility_cresset>
8.2

>  <Rof5_cresset>
2

>  <Confs_cresset>
0

>  <Poses_cresset>
10

>  <_cresset_fieldpoints2>
 2
    -5       8.078917       1.186008     -24.203844     -3.8995
    -5       3.660916       6.379008     -22.659845    -12.1860
    -5       5.474916      -1.753992     -24.574844     -3.9100
    -5       5.269917       2.297008     -29.393845     -2.0070
    -5       2.900916      -1.125992     -24.374844     -4.3550
    -5      -0.342084      -4.102992     -23.503845    -12.1900
    -5       2.984916      -7.013992     -23.636845     -4.9630
    -5      -2.326084       3.146008     -16.299845     -3.5045
    -5      -2.934084       1.512008     -21.973845     -3.9905
    -6       4.599916      -1.651992     -19.123844      6.1445
    -6       9.997916       5.446008     -21.842844      7.2965
    -6       3.423916       0.599008     -24.236845      4.9500
    -6       9.095916      -6.437992     -27.410845      1.2785
    -6       3.299916       1.915008     -17.775845      5.0155
    -6      -4.814084       5.834008     -19.756844      2.0945
    -7       6.466916       6.844008     -26.017845     -2.1520
    -7       5.508916      -2.135992     -20.024845     -2.3525
    -7       4.181916       4.849008     -19.846844     -2.1285
    -7       3.777916       6.781008     -23.373844     -1.8965
    -7       1.662916       4.802008     -18.531845     -2.1500
    -7       4.780916       6.364008     -25.863844     -2.1505
    -7      12.159917       4.874008     -25.658844     -0.9680
    -7       5.136916       1.825008     -20.890844     -3.5055
    -7       3.578916      -0.648992     -24.463844     -3.4135
    -7       5.471916       6.670008     -25.774845     -2.1215
    -7       9.939917       3.162008     -29.263844     -1.0005
    -7       3.900916      -6.689992     -20.159845     -1.9175
    -7      -0.142084      -4.801992     -23.792845     -2.2725
    -7       2.795916      -7.207992     -22.958845     -2.3825
    -7      -0.395084      -1.986992     -19.793844     -4.1825
    -7       3.389916       2.153008     -17.641846     -1.9830
    -7       0.591916       3.282008     -23.667845     -3.0455
    -7      -2.777084       1.506008     -22.268845     -2.6875
    -7      -5.178083       5.866008     -19.887844     -0.9785
    -7      -1.944084       3.093008     -16.002844     -1.8810
    -8       7.724916       3.866008     -25.437845      7.0820
    -8       5.498916       3.832008     -23.896845      5.3785
    -8       1.099916       1.134008     -20.273844      6.3485
    -8       2.810916      -4.010992     -21.527845      6.2205
    -8      -2.258084       2.481008     -19.168844      7.2285
    -8       4.267916      -4.372992     -23.644844      7.2045
    -8       5.590916      -4.967992     -24.803844      5.6110
    -8       0.259916       1.437008     -20.134844      6.2855
    -8      -0.846084       1.968008     -19.196844      5.8465
    -8      -3.498084       1.507008     -18.889845      5.6215

$$$$
2nd_assay_top5_active:4_D
  xed2sdf           3D
 
 82 87  0  0  0  0  0  0  0  0999 V2000
    5.4138    3.9192  -20.6076 C   0  0  0  0  0  0  0  0  0  0  0  0
    5.7878    2.8692  -21.5086 C   0  0  0  0  0  0  0  0  0  0  0  0
    6.1028    4.9982  -20.9966 C   0  0  0  0  0  0  0  0  0  0  0  0
    6.9078    4.7672  -22.0756 N   0  0  0  0  0  0  0  0  0  0  0  0
    4.4418    3.7982  -19.4496 C   0  0  0  0  0  0  0  0  0  0  0  0
    6.6938    3.4462  -22.3646 C   0  0  0  0  0  0  0  0  0  0  0  0
    3.0598    3.3372  -19.8626 C   0  0  0  0  0  0  0  0  0  0  0  0
    5.4448    1.5252  -21.6606 C   0  0  0  0  0  0  0  0  0  0  0  0
    2.4728    3.8242  -20.8196 O   0  0  0  0  0  0  0  0  0  0  0  0
    4.5608    0.9432  -20.8416 F   0  0  0  0  0  0  0  0  0  0  0  0
    6.9648    1.4212  -23.5316 C   0  0  0  0  0  0  0  0  0  0  0  0
    7.3048    2.7382  -23.3926 C   0  0  0  0  0  0  0  0  0  0  0  0
    6.0398    0.8202  -22.6736 C   0  0  0  0  0  0  0  0  0  0  0  0
    2.2858   -1.8228  -24.4686 N   0  0  0  0  0  0  0  0  0  0  0  0
    2.9048   -1.9548  -25.6596 C   0  0  0  0  0  0  0  0  0  0  0  0
    2.3968   -2.8948  -23.6586 C   0  0  0  0  0  0  0  0  0  0  0  0
    1.6908   -2.8638  -22.3436 C   0  0  0  0  0  0  0  0  0  0  0  0
    3.6138   -3.0098  -26.1196 N   0  0  0  0  0  0  0  0  0  0  0  0
    1.6048   -3.9608  -21.8026 O   0  0  0  0  0  0  0  0  0  0  0  0
    2.7858   -0.9238  -26.4746 O   0  0  0  0  0  0  0  0  0  0  0  0
    4.3608    3.6482  -24.7486 O   0  0  0  0  0  0  0  0  0  0  0  0
    3.0908   -4.0218  -24.0406 C   0  0  0  0  0  0  0  0  0  0  0  0
    3.6888   -4.0418  -25.2696 C   0  0  0  0  0  0  0  0  0  0  0  0
    3.9768   -0.1488  -26.7266 C   0  0  0  0  0  0  0  0  0  0  0  0
    3.7838    1.3482  -26.4176 C   0  0  0  0  0  0  0  0  0  0  0  0
    4.9808    3.5312  -26.0446 C   0  0  0  0  0  0  0  0  0  0  0  0
    3.0508    3.0472  -24.7116 C   0  0  0  0  0  0  0  0  0  0  0  0
    5.1558    2.0512  -26.4376 C   0  0  0  0  0  0  0  0  0  0  0  0
    3.1288    1.5422  -25.0346 C   0  0  0  0  0  0  0  0  0  0  0  0
   -1.7852    1.3452  -19.6866 C   0  0  0  0  0  0  0  0  0  0  0  0
    2.5688    2.3802  -19.0576 N   0  0  0  0  0  0  0  0  0  0  0  0
   -0.6502    1.1532  -20.6886 C   0  0  0  0  0  0  0  0  0  0  0  0
    0.7898    0.8032  -20.2066 C   0  0  0  0  0  0  0  0  0  0  0  0
    1.2308   -1.7168  -21.7906 N   0  0  0  0  0  0  0  0  0  0  0  0
   -2.2072    2.6232  -19.3836 C   0  0  0  0  0  0  0  0  0  0  0  0
    1.1748    1.9312  -19.2056 C   0  0  0  0  0  0  0  0  0  0  0  0
   -1.4502    3.9902  -20.1496 Cl  0  0  0  0  0  0  0  0  0  0  0  0
    1.4628   -0.4008  -22.4186 C   0  0  0  0  0  0  0  0  0  0  0  0
    0.5298   -1.7668  -20.4936 C   0  0  0  0  0  0  0  0  0  0  0  0
   -2.4032    0.2702  -19.0876 C   0  0  0  0  0  0  0  0  0  0  0  0
    0.7918   -0.5918  -19.5286 C   0  0  0  0  0  0  0  0  0  0  0  0
    1.7248    0.7712  -21.4446 C   0  0  0  0  0  0  0  0  0  0  0  0
   -3.2292    2.8232  -18.4826 C   0  0  0  0  0  0  0  0  0  0  0  0
   -3.4252    0.4682  -18.1866 C   0  0  0  0  0  0  0  0  0  0  0  0
   -3.8382    1.7452  -17.8826 C   0  0  0  0  0  0  0  0  0  0  0  0
    6.0348    5.8862  -20.5416 H   0  0  0  0  0  0  0  0  0  0  0  0
    7.4398    5.3352  -22.4886 H   0  0  0  0  0  0  0  0  0  0  0  0
    4.3608    4.6912  -19.0076 H   0  0  0  0  0  0  0  0  0  0  0  0
    4.8078    3.1022  -18.8306 H   0  0  0  0  0  0  0  0  0  0  0  0
    7.3848    0.8792  -24.2596 H   0  0  0  0  0  0  0  0  0  0  0  0
    7.9658    3.1742  -24.0046 H   0  0  0  0  0  0  0  0  0  0  0  0
    5.8068   -0.1438  -22.8016 H   0  0  0  0  0  0  0  0  0  0  0  0
    3.1548   -4.8108  -23.4296 H   0  0  0  0  0  0  0  0  0  0  0  0
    4.2018   -4.8568  -25.5436 H   0  0  0  0  0  0  0  0  0  0  0  0
    4.2298   -0.2498  -27.6896 H   0  0  0  0  0  0  0  0  0  0  0  0
    4.6968   -0.4918  -26.1226 H   0  0  0  0  0  0  0  0  0  0  0  0
    3.1838    1.7452  -27.1116 H   0  0  0  0  0  0  0  0  0  0  0  0
    5.8768    3.9752  -26.0216 H   0  0  0  0  0  0  0  0  0  0  0  0
    4.3938    3.9742  -26.7216 H   0  0  0  0  0  0  0  0  0  0  0  0
    2.4618    3.4992  -25.3816 H   0  0  0  0  0  0  0  0  0  0  0  0
    2.6748    3.1572  -23.7906 H   0  0  0  0  0  0  0  0  0  0  0  0
    5.7728    1.6032  -25.7896 H   0  0  0  0  0  0  0  0  0  0  0  0
    5.5448    1.9942  -27.3576 H   0  0  0  0  0  0  0  0  0  0  0  0
    2.2078    1.1522  -25.0416 H   0  0  0  0  0  0  0  0  0  0  0  0
    3.6768    1.0792  -24.3386 H   0  0  0  0  0  0  0  0  0  0  0  0
    3.0788    2.0062  -18.4456 H   0  0  0  0  0  0  0  0  0  0  0  0
   -0.5792    2.0052  -21.2076 H   0  0  0  0  0  0  0  0  0  0  0  0
   -0.9252    0.3262  -21.1786 H   0  0  0  0  0  0  0  0  0  0  0  0
    0.8778    1.6232  -18.3016 H   0  0  0  0  0  0  0  0  0  0  0  0
    0.7318    2.7342  -19.6036 H   0  0  0  0  0  0  0  0  0  0  0  0
    0.6578   -0.1748  -22.9666 H   0  0  0  0  0  0  0  0  0  0  0  0
    2.3008   -0.4998  -22.9546 H   0  0  0  0  0  0  0  0  0  0  0  0
    0.8028   -2.6108  -20.0306 H   0  0  0  0  0  0  0  0  0  0  0  0
   -0.4442   -1.7158  -20.7146 H   0  0  0  0  0  0  0  0  0  0  0  0
   -2.1082   -0.6598  -19.3096 H   0  0  0  0  0  0  0  0  0  0  0  0
    1.6828   -0.7318  -19.0976 H   0  0  0  0  0  0  0  0  0  0  0  0
    0.0398   -0.5898  -18.8696 H   0  0  0  0  0  0  0  0  0  0  0  0
    1.6088    1.6282  -21.9466 H   0  0  0  0  0  0  0  0  0  0  0  0
    2.6528    0.6472  -21.0936 H   0  0  0  0  0  0  0  0  0  0  0  0
   -3.5292    3.7512  -18.2646 H   0  0  0  0  0  0  0  0  0  0  0  0
   -3.8672   -0.3168  -17.7526 H   0  0  0  0  0  0  0  0  0  0  0  0
   -4.5792    1.8892  -17.2266 H   0  0  0  0  0  0  0  0  0  0  0  0
  2  1  1  0
  3  1  2  0
  4  3  1  0
  4  6  1  0
  5  1  1  0
  6  2  2  0
  7  5  1  0
  7 31  1  0
  8  2  1  0
  9  7  2  0
 10  8  1  0
 11 12  2  0
 11 13  1  0
 12  6  1  0
 13  8  2  0
 15 14  2  0
 16 14  1  0
 17 16  1  0
 18 15  1  0
 19 17  2  0
 20 15  1  0
 21 26  1  0
 21 27  1  0
 22 16  2  0
 22 23  1  0
 23 18  2  0
 24 20  1  0
 25 24  1  0
 26 28  1  0
 27 29  1  0
 28 25  1  0
 29 25  1  0
 30 32  1  0
 32 33  1  0
 33 36  1  0
 34 17  1  0
 34 39  1  0
 35 30  2  0
 36 31  1  0
 37 35  1  0
 38 34  1  0
 38 42  1  0
 39 41  1  0
 40 30  1  0
 41 33  1  0
 42 33  1  0
 43 35  1  0
 44 40  2  0
 45 43  2  0
 45 44  1  0
  3 46  1  0
  4 47  1  0
  5 48  1  0
  5 49  1  0
 11 50  1  0
 12 51  1  0
 13 52  1  0
 22 53  1  0
 23 54  1  0
 24 55  1  0
 24 56  1  0
 25 57  1  0
 26 58  1  0
 26 59  1  0
 27 60  1  0
 27 61  1  0
 28 62  1  0
 28 63  1  0
 29 64  1  0
 29 65  1  0
 31 66  1  0
 32 67  1  0
 32 68  1  0
 36 69  1  0
 36 70  1  0
 38 71  1  0
 38 72  1  0
 39 73  1  0
 39 74  1  0
 40 75  1  0
 41 76  1  0
 41 77  1  0
 42 78  1  0
 42 79  1  0
 43 80  1  0
 44 81  1  0
 45 82  1  0
M  END
>  <BioMolTech Lead Finder dG>
-12.435

>  <BioMolTech Lead Finder VSscore>
-14.546

>  <BioMolTech Lead Finder Rank score>
-11.926

>  <BioMolTech Lead Finder LE>
-0.276

>  <BioMolTech Lead Finder Structure Name>
Ligand_1.sdf

>  <BioMolTech Lead Finder SDF id>
0

>  <BioMolTech Lead Finder Pose rank>
0

>  <BioMolTech Lead Finder version>
2112 1, 24 December 2021

>  <KLNUMBER>
KL-010-1326-515

>  <Smiles>
c1(CC(NCC(CCN2C(=O)c(ccnc3OCC(CC4)CCO4)n3)(CC2)Cc5ccccc5Cl)=O)c[nH]c(cccc6F)c16

>  <NO>
13977

>  <target1>
NOFL

>  <target2>
.

>  <target3>
.

>  <KKNUMBER>
.

>  <PPI_type>
non-flat

>  <NPR1>
0.194012

>  <NPR2>
0.904876

>  <NPR12>
1.098888

>  <percent_inhibition_100uM>
30.4

>  <percent_inhibition_100uM_counter>
-104.3

>  <activity>
active

>  <Index>
4

>  <Field Similarity_cresset>
0.000

>  <Raw Field Score_cresset>
0.000

>  <Penalised Field Score_cresset>
0.000

>  <Shape Similarity_cresset>
0.000

>  <Raw Shape Score_cresset>
0.000

>  <Penalised Shape Score_cresset>
0.000

>  <Excluded Volume Clash Penalty_cresset>
0.000

>  <Field Value Penalty_cresset>
0.000

>  <LF dG>
-12.435

>  <LF VSscore>
-14.546

>  <LF Rank Score>
-11.926

>  <LF LE>
-0.276

>  <Preferred Pose_cresset>
true

>  <Favorite_cresset>
true

>  <Protein_cresset>
4XMB_P

>  <MW_cresset>
634.1

>  <#Atoms_cresset>
45

>  <SlogP_cresset>
5.7

>  <TPSA_cresset>
109.4

>  <Flexibility_cresset>
10.9

>  <Rof5_cresset>
2

>  <Confs_cresset>
0

>  <Poses_cresset>
10

>  <_cresset_fieldpoints2>
 2
    -5       8.462798       2.215165     -20.299551     -4.6490
    -5       3.151630       4.787724     -22.141180    -18.0756
    -5       3.540798      -1.778835     -20.754551     -5.8495
    -5       1.334798      -5.873835     -21.567551     -7.2650
    -5       0.342798      -0.715835     -25.544552     -5.4110
    -5      -0.734201      -2.255835     -23.281551     -5.0910
    -5       3.232799      -3.213835     -28.217552     -4.5760
    -5       1.062799      -5.544835     -20.806551     -7.2135
    -5       4.243798       4.921165     -23.216551    -15.1565
    -5      -4.557201       1.600165     -21.176552     -4.5135
    -5      -1.038202       2.072165     -16.471552     -2.8945
    -5      -2.347202       6.361166     -19.334551     -2.4940
    -6       4.332798       1.626165     -16.934551      5.6300
    -6       8.893799       5.684165     -23.810551      6.3500
    -6       5.839798       6.594165     -18.363552      2.8680
    -6       8.306799       1.534165     -26.352551      3.7780
    -6       7.172798      -0.434835     -26.088551      4.1360
    -6       4.971798      -6.622835     -24.460552      2.9800
    -6      -1.576202      -2.572835     -18.391552      3.7435
    -6      -5.559201       3.708165     -16.267551      2.2565
    -6      -5.602201      -0.069835     -16.015551      2.5740
    -7       7.218799       1.725165     -18.741550     -2.1930
    -7       3.161798       5.335166     -22.517551     -2.9375
    -7       0.693798       3.926165     -22.251551     -3.7610
    -7       3.874798      -0.274835     -18.032551     -2.2540
    -7      -0.495202       0.712165     -16.456551     -2.7425
    -7       5.259799       0.837165     -17.785551     -1.8860
    -7       8.461799       1.673165     -20.032551     -2.1715
    -7       7.215798      -0.610835     -26.200552     -2.3360
    -7       0.161798      -0.239835     -25.468552     -2.6255
    -7      -0.036201       2.309165     -23.783552     -3.1870
    -7       6.107799      -1.842835     -24.557552     -2.9305
    -7       3.784799      -2.020835     -20.557550     -3.5160
    -7      -1.612201      -1.398835     -22.952551     -2.6020
    -7       4.118798       1.846165     -29.622551     -1.6530
    -7       4.444798      -7.117835     -23.878551     -0.9020
    -7       3.795798       3.112165     -29.254551     -1.6935
    -7       8.306799       2.560165     -26.560551     -2.0400
    -7       2.082798       3.877165     -27.939552     -1.8550
    -7       4.638799       5.762166     -23.750551     -2.9295
    -7       1.048798       5.256166     -19.102551     -2.4350
    -7      -0.107202       4.125165     -17.340551     -2.3410
    -7      -2.661202       2.712165     -22.732552     -2.0260
    -7      -1.372201      -2.661835     -17.968552     -2.0515
    -7      -4.609201       1.457165     -21.502552     -1.9195
    -7      -5.866201      -0.130835     -15.899551     -0.9700
    -7      -5.488201       4.370165     -16.484550     -0.9780
    -7       2.606798       0.111165     -16.850552     -1.9120
    -8       5.330798       3.686165     -20.562551      5.3825
    -8       0.600798       0.655165     -20.338551      6.4270
    -8       6.351799       2.107165     -22.518551      7.1240
    -8      -1.299201       2.426165     -20.056551      6.0950
    -8      -2.805202       1.542165     -18.787552      7.2265
    -8       4.033798       1.949165     -25.867552      5.9815
    -8       3.105798      -3.875835     -24.154551      4.1575
    -8      -1.623202       1.356165     -19.745552      5.8915

$$$$
2nd_assay_top5_active:5_D
  xed2sdf           3D
 
 84 89  0  0  0  0  0  0  0  0999 V2000
    3.8543    2.7081  -22.4707 C   0  0  0  0  0  0  0  0  0  0  0  0
    5.0233    3.4381  -22.7177 C   0  0  0  0  0  0  0  0  0  0  0  0
    5.8023    4.0831  -21.7707 N   0  0  0  0  0  0  0  0  0  0  0  0
    3.2043    2.5101  -21.1617 C   0  0  0  0  0  0  0  0  0  0  0  0
    5.5173    3.5491  -23.9927 C   0  0  0  0  0  0  0  0  0  0  0  0
    7.0443    4.5891  -22.3777 C   0  0  0  0  0  0  0  0  0  0  0  0
    3.8943    2.0191  -20.2687 O   0  0  0  0  0  0  0  0  0  0  0  0
    6.8083    4.3371  -23.8937 C   0  0  0  0  0  0  0  0  0  0  0  0
    3.2233    2.1501  -23.5807 C   0  0  0  0  0  0  0  0  0  0  0  0
    5.3253    4.7311  -20.5427 C   0  0  0  0  0  0  0  0  0  0  0  0
    3.7223    2.2881  -24.8527 C   0  0  0  0  0  0  0  0  0  0  0  0
    4.8803    3.0101  -25.0757 C   0  0  0  0  0  0  0  0  0  0  0  0
    2.7513   -2.9189  -22.7367 N   0  0  0  0  0  0  0  0  0  0  0  0
    3.4023   -4.0659  -22.4457 C   0  0  0  0  0  0  0  0  0  0  0  0
    1.6233   -2.7179  -22.0247 C   0  0  0  0  0  0  0  0  0  0  0  0
    0.7993   -1.5079  -22.3197 C   0  0  0  0  0  0  0  0  0  0  0  0
    3.0703   -5.0049  -21.5327 N   0  0  0  0  0  0  0  0  0  0  0  0
    0.1973   -1.5729  -23.3857 O   0  0  0  0  0  0  0  0  0  0  0  0
    4.4813   -4.3029  -23.1667 O   0  0  0  0  0  0  0  0  0  0  0  0
    4.1233   -1.9779  -27.9717 O   0  0  0  0  0  0  0  0  0  0  0  0
    1.1933   -3.6299  -21.0897 C   0  0  0  0  0  0  0  0  0  0  0  0
    1.9413   -4.7509  -20.8607 C   0  0  0  0  0  0  0  0  0  0  0  0
    4.2773   -4.6029  -24.5637 C   0  0  0  0  0  0  0  0  0  0  0  0
    4.5273   -3.3849  -25.4737 C   0  0  0  0  0  0  0  0  0  0  0  0
    3.4253   -1.5469  -26.7857 C   0  0  0  0  0  0  0  0  0  0  0  0
    5.4103   -2.5569  -27.6727 C   0  0  0  0  0  0  0  0  0  0  0  0
    3.1773   -2.7339  -25.8357 C   0  0  0  0  0  0  0  0  0  0  0  0
    5.2593   -3.7959  -26.7677 C   0  0  0  0  0  0  0  0  0  0  0  0
   -2.0137    2.6831  -18.3947 C   0  0  0  0  0  0  0  0  0  0  0  0
    1.9243    2.9171  -20.9997 N   0  0  0  0  0  0  0  0  0  0  0  0
   -0.6227    2.1031  -18.1477 C   0  0  0  0  0  0  0  0  0  0  0  0
    0.2183    1.6361  -19.3707 C   0  0  0  0  0  0  0  0  0  0  0  0
    0.6943   -0.4639  -21.4617 N   0  0  0  0  0  0  0  0  0  0  0  0
   -3.1337    1.8961  -18.2287 C   0  0  0  0  0  0  0  0  0  0  0  0
    1.2533    2.7541  -19.6967 C   0  0  0  0  0  0  0  0  0  0  0  0
   -2.9597    0.2371  -17.7347 Cl  0  0  0  0  0  0  0  0  0  0  0  0
   -0.1507    0.7121  -21.7587 C   0  0  0  0  0  0  0  0  0  0  0  0
    1.4853   -0.4709  -20.2167 C   0  0  0  0  0  0  0  0  0  0  0  0
   -2.1627    3.9941  -18.7917 C   0  0  0  0  0  0  0  0  0  0  0  0
    0.8803    0.2811  -19.0127 C   0  0  0  0  0  0  0  0  0  0  0  0
   -0.7837    1.4021  -20.5287 C   0  0  0  0  0  0  0  0  0  0  0  0
   -4.3897    2.4171  -18.4507 C   0  0  0  0  0  0  0  0  0  0  0  0
   -3.4167    4.5171  -19.0137 C   0  0  0  0  0  0  0  0  0  0  0  0
   -4.5317    3.7281  -18.8427 C   0  0  0  0  0  0  0  0  0  0  0  0
    7.8413    4.0861  -22.0447 H   0  0  0  0  0  0  0  0  0  0  0  0
    7.2313    5.5471  -22.1597 H   0  0  0  0  0  0  0  0  0  0  0  0
    6.7253    5.2041  -24.3847 H   0  0  0  0  0  0  0  0  0  0  0  0
    7.5723    3.8391  -24.3037 H   0  0  0  0  0  0  0  0  0  0  0  0
    2.3783    1.6321  -23.4467 H   0  0  0  0  0  0  0  0  0  0  0  0
    5.9583    5.4631  -20.2937 H   0  0  0  0  0  0  0  0  0  0  0  0
    4.4133    5.1121  -20.6947 H   0  0  0  0  0  0  0  0  0  0  0  0
    5.2783    4.0591  -19.8047 H   0  0  0  0  0  0  0  0  0  0  0  0
    3.2453    1.8631  -25.6217 H   0  0  0  0  0  0  0  0  0  0  0  0
    5.2393    3.1351  -26.0007 H   0  0  0  0  0  0  0  0  0  0  0  0
    0.3453   -3.4739  -20.5827 H   0  0  0  0  0  0  0  0  0  0  0  0
    1.6343   -5.4029  -20.1677 H   0  0  0  0  0  0  0  0  0  0  0  0
    3.3353   -4.9129  -24.6917 H   0  0  0  0  0  0  0  0  0  0  0  0
    4.9343   -5.3109  -24.8207 H   0  0  0  0  0  0  0  0  0  0  0  0
    5.1043   -2.7349  -24.9797 H   0  0  0  0  0  0  0  0  0  0  0  0
    2.5483   -1.1449  -27.0487 H   0  0  0  0  0  0  0  0  0  0  0  0
    3.9873   -0.8699  -26.3117 H   0  0  0  0  0  0  0  0  0  0  0  0
    5.9773   -1.8759  -27.2087 H   0  0  0  0  0  0  0  0  0  0  0  0
    5.8393   -2.8389  -28.5297 H   0  0  0  0  0  0  0  0  0  0  0  0
    2.5883   -3.4059  -26.2847 H   0  0  0  0  0  0  0  0  0  0  0  0
    2.7283   -2.4089  -25.0027 H   0  0  0  0  0  0  0  0  0  0  0  0
    6.1623   -4.1609  -26.5437 H   0  0  0  0  0  0  0  0  0  0  0  0
    4.7323   -4.4999  -27.2437 H   0  0  0  0  0  0  0  0  0  0  0  0
    1.4823    3.2571  -21.6797 H   0  0  0  0  0  0  0  0  0  0  0  0
   -0.7347    1.3131  -17.5447 H   0  0  0  0  0  0  0  0  0  0  0  0
   -0.1027    2.8711  -17.7757 H   0  0  0  0  0  0  0  0  0  0  0  0
    1.9863    2.6471  -19.0257 H   0  0  0  0  0  0  0  0  0  0  0  0
    0.6613    3.5601  -19.6937 H   0  0  0  0  0  0  0  0  0  0  0  0
   -0.8907    0.4181  -22.3637 H   0  0  0  0  0  0  0  0  0  0  0  0
    0.4563    1.3911  -22.1697 H   0  0  0  0  0  0  0  0  0  0  0  0
    2.3753   -0.0609  -20.4177 H   0  0  0  0  0  0  0  0  0  0  0  0
    1.5273   -1.4289  -19.9347 H   0  0  0  0  0  0  0  0  0  0  0  0
   -1.3547    4.5701  -18.9187 H   0  0  0  0  0  0  0  0  0  0  0  0
    1.6093    0.4521  -18.3497 H   0  0  0  0  0  0  0  0  0  0  0  0
    0.1533   -0.3019  -18.6487 H   0  0  0  0  0  0  0  0  0  0  0  0
   -1.5317    0.8301  -20.1927 H   0  0  0  0  0  0  0  0  0  0  0  0
   -1.1027    2.3011  -20.8267 H   0  0  0  0  0  0  0  0  0  0  0  0
   -5.1987    1.8421  -18.3257 H   0  0  0  0  0  0  0  0  0  0  0  0
   -3.5187    5.4691  -19.3007 H   0  0  0  0  0  0  0  0  0  0  0  0
   -5.4427    4.1071  -19.0037 H   0  0  0  0  0  0  0  0  0  0  0  0
  2  1  2  0
  3  2  1  0
  4  1  1  0
  4 30  1  0
  5  2  1  0
  6  3  1  0
  7  4  2  0
  8  5  1  0
  8  6  1  0
  9  1  1  0
 10  3  1  0
 11  9  2  0
 11 12  1  0
 12  5  2  0
 14 13  2  0
 15 13  1  0
 16 15  1  0
 17 14  1  0
 18 16  2  0
 19 14  1  0
 20 25  1  0
 20 26  1  0
 21 15  2  0
 21 22  1  0
 22 17  2  0
 23 19  1  0
 24 23  1  0
 25 27  1  0
 26 28  1  0
 27 24  1  0
 28 24  1  0
 29 31  1  0
 31 32  1  0
 32 35  1  0
 33 16  1  0
 33 38  1  0
 34 29  2  0
 35 30  1  0
 36 34  1  0
 37 33  1  0
 37 41  1  0
 38 40  1  0
 39 29  1  0
 40 32  1  0
 41 32  1  0
 42 34  1  0
 43 39  2  0
 44 42  2  0
 44 43  1  0
  6 45  1  0
  6 46  1  0
  8 47  1  0
  8 48  1  0
  9 49  1  0
 10 50  1  0
 10 51  1  0
 10 52  1  0
 11 53  1  0
 12 54  1  0
 21 55  1  0
 22 56  1  0
 23 57  1  0
 23 58  1  0
 24 59  1  0
 25 60  1  0
 25 61  1  0
 26 62  1  0
 26 63  1  0
 27 64  1  0
 27 65  1  0
 28 66  1  0
 28 67  1  0
 30 68  1  0
 31 69  1  0
 31 70  1  0
 35 71  1  0
 35 72  1  0
 37 73  1  0
 37 74  1  0
 38 75  1  0
 38 76  1  0
 39 77  1  0
 40 78  1  0
 40 79  1  0
 41 80  1  0
 41 81  1  0
 42 82  1  0
 43 83  1  0
 44 84  1  0
M  END
>  <BioMolTech Lead Finder dG>
-12.306

>  <BioMolTech Lead Finder VSscore>
-13.603

>  <BioMolTech Lead Finder Rank score>
-6.5

>  <BioMolTech Lead Finder LE>
-0.28

>  <BioMolTech Lead Finder Structure Name>
Ligand_1.sdf

>  <BioMolTech Lead Finder SDF id>
0

>  <BioMolTech Lead Finder Pose rank>
0

>  <BioMolTech Lead Finder version>
2112 1, 24 December 2021

>  <KLNUMBER>
KL-010-1336-764

>  <Smiles>
c1(cccc(CCN2C)c12)C(NCC(CCN3C(=O)c(ccnc4OCC(CC5)CCO5)n4)(CC3)Cc6ccccc6Cl)=O

>  <NO>
13906

>  <target1>
NOFL2

>  <target2>
.

>  <target3>
.

>  <KKNUMBER>
.

>  <PPI_type>
non-flat

>  <NPR1>
0.567535

>  <NPR2>
0.886302

>  <NPR12>
1.453837

>  <percent_inhibition_100uM>
28.2

>  <percent_inhibition_100uM_counter>
-22.4

>  <activity>
active

>  <Index>
5

>  <Field Similarity_cresset>
0.000

>  <Raw Field Score_cresset>
0.000

>  <Penalised Field Score_cresset>
0.000

>  <Shape Similarity_cresset>
0.000

>  <Raw Shape Score_cresset>
0.000

>  <Penalised Shape Score_cresset>
0.000

>  <Excluded Volume Clash Penalty_cresset>
0.000

>  <Field Value Penalty_cresset>
0.000

>  <LF dG>
-12.306

>  <LF VSscore>
-13.603

>  <LF Rank Score>
-6.5

>  <LF LE>
-0.28

>  <Preferred Pose_cresset>
true

>  <Favorite_cresset>
true

>  <Protein_cresset>
4XMB_P

>  <MW_cresset>
618.2

>  <#Atoms_cresset>
44

>  <SlogP_cresset>
4.8

>  <TPSA_cresset>
96.9

>  <Flexibility_cresset>
9.4

>  <Rof5_cresset>
1

>  <Confs_cresset>
0

>  <Poses_cresset>
10

>  <_cresset_fieldpoints2>
 2
    -5       4.053283       6.115116     -23.309717     -3.3110
    -5       4.679283      -6.273884     -21.262718     -6.6150
    -5       5.667283       1.409116     -20.515718    -13.8210
    -5       4.026282      -1.022884     -22.949718     -8.6805
    -5       3.254283      -2.142884     -29.628717     -8.9360
    -5       0.205283      -2.941885     -24.686718    -10.7545
    -5      -3.469718       3.906116     -15.761718     -2.6970
    -5      -3.795717       2.100116     -21.452719     -1.9430
    -6      -0.280717       4.130116     -22.164719      7.1865
    -6       9.032283       6.521116     -23.794718      2.3085
    -6       7.860282       7.077116     -20.438717      2.1605
    -6       7.051283       4.381115     -26.969719      2.3375
    -6       0.529283       5.373116     -18.235718      5.1785
    -6      -5.580718       6.562116     -19.809717      3.4610
    -6       1.764283       2.394115     -16.422718      3.0955
    -6      -7.508718       3.003116     -18.800718      3.1595
    -6      -0.209717      -2.839884     -18.551718      5.1975
    -7       6.468283       1.627115     -20.482718     -2.5435
    -7       4.431283       6.648116     -23.087717     -2.4465
    -7       9.236282       6.504116     -23.942719     -1.1290
    -7       2.329283       5.570116     -22.153717     -2.6230
    -7       7.189282       4.411116     -27.117718     -1.4350
    -7      -0.681717       4.601116     -21.701717     -2.8615
    -7       0.099283       3.390115     -23.710718     -2.3250
    -7       0.753283       5.298116     -17.692719     -2.0820
    -7       1.208283      -0.022884     -24.930717     -3.4605
    -7       0.710283      -4.420885     -24.621717     -2.6540
    -7       3.945283       1.364115     -17.961718     -2.2740
    -7       7.361283      -3.804884     -23.958717     -1.8495
    -7       2.532283      -5.874885     -27.082718     -1.9430
    -7      -0.583717      -0.820884     -16.224718     -2.0720
    -7       2.696283      -3.934885     -28.940718     -2.0800
    -7       6.509283      -5.419884     -29.253717     -1.0980
    -7      -1.916717       1.606116     -15.128717     -1.9575
    -7       2.148283       2.168116     -16.445717     -2.0415
    -7      -1.542717      -1.760884     -20.010717     -3.8125
    -7      -5.891717      -0.424884     -17.409718     -1.3145
    -7       4.096283      -0.894884     -23.216719     -4.3860
    -7      -7.748717       2.623116     -18.821718     -0.9790
    -7      -3.130717       3.865116     -15.438718     -1.9040
    -7      -5.911717       6.654116     -19.880718     -0.9700
    -7      -3.569717       2.172116     -21.765718     -2.6950
    -7      -7.294718       3.166116     -16.939718     -0.9695
    -8      -0.877717       1.975116     -19.197718      6.5025
    -8       4.244283      -3.618885     -25.849718      5.9490
    -8      -3.259717       3.199116     -18.628717      7.2385
    -8      -0.059717       1.544116     -19.266718      6.4495
    -8       5.058283       5.134116     -19.872719      2.5995
    -8       1.360283      -3.585885     -21.109718      4.2595
    -8       1.106283      -2.592884     -21.160717      4.1250
    -8       4.358283       2.849116     -23.805717      7.0590
    -8      -2.069717       1.495116     -18.164719      6.0610

$$$$
A 41P 701_D
  xed2sdf           3D
 
 70 73  0  0  0  0  0  0  0  0999 V2000
    2.7514   -2.8513  -21.3488 C   0  0  0  0  0  0  0  0  0  0  0  0
    1.5174   -3.2623  -20.5838 C   0  0  0  0  0  0  0  0  0  0  0  0
    6.4354   -1.8803  -28.0828 C   0  0  0  0  0  0  0  0  0  0  0  0
    5.0234   -1.6253  -28.2278 O   0  0  0  0  0  0  0  0  0  0  0  0
    4.2414   -1.6893  -27.1458 C   0  0  0  0  0  0  0  0  0  0  0  0
    3.8614   -2.8923  -26.5638 C   0  0  0  0  0  0  0  0  0  0  0  0
    3.0514   -2.9073  -25.4538 C   0  0  0  0  0  0  0  0  0  0  0  0
    3.7974   -0.5043  -26.5858 C   0  0  0  0  0  0  0  0  0  0  0  0
    2.9784   -0.5143  -25.4838 C   0  0  0  0  0  0  0  0  0  0  0  0
    2.6054   -1.7163  -24.9198 C   0  0  0  0  0  0  0  0  0  0  0  0
    1.5214   -1.7203  -23.4868 S   0  0  0  0  0  0  0  0  0  0  0  0
    2.4794   -1.6543  -22.1588 N   0  0  0  0  0  0  0  0  0  0  0  0
    1.7434   -4.3163  -19.7888 N   0  0  0  0  0  0  0  0  0  0  0  0
    0.4444   -2.6873  -20.6858 O   0  0  0  0  0  0  0  0  0  0  0  0
    3.0734   -0.4333  -21.8148 C   0  0  0  0  0  0  0  0  0  0  0  0
    4.3114   -0.1333  -22.3028 C   0  0  0  0  0  0  0  0  0  0  0  0
    4.9224    1.0837  -22.0118 C   0  0  0  0  0  0  0  0  0  0  0  0
    4.3034    2.0157  -21.2298 C   0  0  0  0  0  0  0  0  0  0  0  0
    4.9434    3.2397  -20.9918 N   0  0  0  0  0  0  0  0  0  0  0  0
    6.0634    3.2987  -20.0388 C   0  0  0  0  0  0  0  0  0  0  0  0
    5.7064    2.7787  -18.6658 C   0  0  0  0  0  0  0  0  0  0  0  0
    5.4594    3.7577  -17.7848 N   0  0  0  0  0  0  0  0  0  0  0  0
    5.6624    1.5857  -18.4028 O   0  0  0  0  0  0  0  0  0  0  0  0
    4.5344    4.5247  -21.9248 S   0  0  0  0  0  0  0  0  0  0  0  0
    5.2714    4.1607  -23.5198 C   0  0  0  0  0  0  0  0  0  0  0  0
    6.6204    4.3687  -23.7138 C   0  0  0  0  0  0  0  0  0  0  0  0
    7.1884    4.0427  -24.9208 C   0  0  0  0  0  0  0  0  0  0  0  0
    6.4164    3.5097  -25.9458 C   0  0  0  0  0  0  0  0  0  0  0  0
    6.9304    3.1637  -27.1308 O   0  0  0  0  0  0  0  0  0  0  0  0
    7.1724    1.7687  -27.4048 C   0  0  0  0  0  0  0  0  0  0  0  0
    5.0614    3.3207  -25.7348 C   0  0  0  0  0  0  0  0  0  0  0  0
    4.4884    3.6407  -24.5298 C   0  0  0  0  0  0  0  0  0  0  0  0
    5.1414    5.7057  -21.3978 O   0  0  0  0  0  0  0  0  0  0  0  0
    3.1144    4.5847  -22.0828 O   0  0  0  0  0  0  0  0  0  0  0  0
    3.0274    1.7267  -20.6798 C   0  0  0  0  0  0  0  0  0  0  0  0
    2.4114    0.4987  -20.9728 C   0  0  0  0  0  0  0  0  0  0  0  0
    1.1484    0.2197  -20.4168 C   0  0  0  0  0  0  0  0  0  0  0  0
    0.5314    1.1197  -19.6138 C   0  0  0  0  0  0  0  0  0  0  0  0
    1.1444    2.3437  -19.3228 C   0  0  0  0  0  0  0  0  0  0  0  0
    2.3604    2.6387  -19.8408 C   0  0  0  0  0  0  0  0  0  0  0  0
    0.7964   -2.9513  -23.4628 O   0  0  0  0  0  0  0  0  0  0  0  0
    0.7174   -0.5413  -23.5458 O   0  0  0  0  0  0  0  0  0  0  0  0
    3.0334   -3.6003  -21.9478 H   0  0  0  0  0  0  0  0  0  0  0  0
    3.4804   -2.6413  -20.6978 H   0  0  0  0  0  0  0  0  0  0  0  0
    6.6324   -2.0813  -27.1238 H   0  0  0  0  0  0  0  0  0  0  0  0
    6.6974   -2.6603  -28.6518 H   0  0  0  0  0  0  0  0  0  0  0  0
    6.9534   -1.0763  -28.3738 H   0  0  0  0  0  0  0  0  0  0  0  0
    4.1804   -3.7553  -26.9558 H   0  0  0  0  0  0  0  0  0  0  0  0
    2.7854   -3.7763  -25.0368 H   0  0  0  0  0  0  0  0  0  0  0  0
    4.0744    0.3677  -26.9888 H   0  0  0  0  0  0  0  0  0  0  0  0
    2.6544    0.3467  -25.0918 H   0  0  0  0  0  0  0  0  0  0  0  0
    2.5384   -4.6943  -19.7608 H   0  0  0  0  0  0  0  0  0  0  0  0
    1.0914   -4.6333  -19.2898 H   0  0  0  0  0  0  0  0  0  0  0  0
    4.7884   -0.7983  -22.8778 H   0  0  0  0  0  0  0  0  0  0  0  0
    5.8304    1.2787  -22.3828 H   0  0  0  0  0  0  0  0  0  0  0  0
    6.3594    4.2507  -19.9538 H   0  0  0  0  0  0  0  0  0  0  0  0
    6.7894    2.7127  -20.3978 H   0  0  0  0  0  0  0  0  0  0  0  0
    5.5034    4.6037  -18.0248 H   0  0  0  0  0  0  0  0  0  0  0  0
    5.2504    3.5527  -16.9558 H   0  0  0  0  0  0  0  0  0  0  0  0
    7.1814    4.7527  -22.9808 H   0  0  0  0  0  0  0  0  0  0  0  0
    8.1664    4.1917  -25.0638 H   0  0  0  0  0  0  0  0  0  0  0  0
    6.9004    1.2287  -26.6078 H   0  0  0  0  0  0  0  0  0  0  0  0
    6.6414    1.4837  -28.2018 H   0  0  0  0  0  0  0  0  0  0  0  0
    8.1444    1.6267  -27.5928 H   0  0  0  0  0  0  0  0  0  0  0  0
    4.4944    2.9467  -26.4688 H   0  0  0  0  0  0  0  0  0  0  0  0
    3.5094    3.4987  -24.3838 H   0  0  0  0  0  0  0  0  0  0  0  0
    0.7024   -0.6523  -20.6178 H   0  0  0  0  0  0  0  0  0  0  0  0
   -0.3666    0.9077  -19.2278 H   0  0  0  0  0  0  0  0  0  0  0  0
    0.6824    3.0027  -18.7298 H   0  0  0  0  0  0  0  0  0  0  0  0
    2.7894    3.5157  -19.6248 H   0  0  0  0  0  0  0  0  0  0  0  0
  1  2  1  0
  1 12  1  0
  2 13  1  0
  2 14  2  0
  3  4  1  0
  4  5  1  0
  5  6  2  0
  5  8  1  0
  6  7  1  0
  7 10  2  0
  8  9  2  0
  9 10  1  0
 10 11  1  0
 11 12  1  0
 11 41  2  0
 11 42  2  0
 12 15  1  0
 15 16  2  0
 15 36  1  0
 16 17  1  0
 17 18  2  0
 18 19  1  0
 18 35  1  0
 19 20  1  0
 19 24  1  0
 20 21  1  0
 21 22  1  0
 21 23  2  0
 24 25  1  0
 24 33  2  0
 24 34  2  0
 25 26  2  0
 25 32  1  0
 26 27  1  0
 27 28  2  0
 28 29  1  0
 28 31  1  0
 29 30  1  0
 31 32  2  0
 35 36  2  0
 35 40  1  0
 36 37  1  0
 37 38  2  0
 38 39  1  0
 39 40  2  0
  1 43  1  0
  1 44  1  0
  3 45  1  0
  3 46  1  0
  3 47  1  0
  6 48  1  0
  7 49  1  0
  8 50  1  0
  9 51  1  0
 13 52  1  0
 13 53  1  0
 16 54  1  0
 17 55  1  0
 20 56  1  0
 20 57  1  0
 22 58  1  0
 22 59  1  0
 26 60  1  0
 27 61  1  0
 30 62  1  0
 30 63  1  0
 30 64  1  0
 31 65  1  0
 32 66  1  0
 37 67  1  0
 38 68  1  0
 39 69  1  0
 40 70  1  0
M  END
>  <BioMolTech Lead Finder dG>
-12.979

>  <BioMolTech Lead Finder VSscore>
-17.056

>  <BioMolTech Lead Finder Rank score>
-14.737

>  <BioMolTech Lead Finder LE>
-0.309

>  <BioMolTech Lead Finder Structure Name>
Ligand_1.sdf

>  <BioMolTech Lead Finder SDF id>
0

>  <BioMolTech Lead Finder Pose rank>
0

>  <BioMolTech Lead Finder version>
2112 1, 24 December 2021

>  <Field Similarity_cresset>
0.000

>  <Raw Field Score_cresset>
0.000

>  <Penalised Field Score_cresset>
0.000

>  <Shape Similarity_cresset>
0.000

>  <Raw Shape Score_cresset>
0.000

>  <Penalised Shape Score_cresset>
0.000

>  <Excluded Volume Clash Penalty_cresset>
0.000

>  <Field Value Penalty_cresset>
0.000

>  <LF dG>
-12.979

>  <LF VSscore>
-17.056

>  <LF Rank Score>
-14.737

>  <LF LE>
-0.309

>  <Preferred Pose_cresset>
true

>  <Favorite_cresset>
false

>  <Protein_cresset>
4XMB_P

>  <MW_cresset>
612.7

>  <#Atoms_cresset>
42

>  <SlogP_cresset>
2.2

>  <TPSA_cresset>
179.4

>  <Flexibility_cresset>
9.5

>  <Rof5_cresset>
2

>  <Confs_cresset>
0

>  <Poses_cresset>
10

>  <_cresset_fieldpoints2>
 2
    -5       5.235368       0.010725     -19.117786    -14.3920
    -5       3.342368      -1.521275     -29.961786     -4.2315
    -5      -0.753632      -1.851275     -21.799786    -14.4525
    -5       6.763368       5.071725     -28.487785     -4.2935
    -5       5.461368       6.349725     -26.567787     -3.7270
    -5      -0.016632       1.176725     -22.895786    -11.5910
    -6       4.336368      -5.153275     -20.547787      8.5290
    -6       8.548368      -0.698275     -26.281786      4.9770
    -6       6.328368      -4.721275     -26.851786      4.6595
    -6       4.041368      -5.069275     -23.271786      5.8455
    -6       4.149368       1.994725     -28.356787      3.3550
    -6       2.588368       2.266725     -27.006786      3.0100
    -6       8.317368       4.730725     -21.126785      6.9550
    -6       6.551368       6.156725     -18.746786      7.2020
    -7       1.512368      -5.158275     -23.329786     -2.4090
    -7       5.099368      -4.846275     -20.467787     -1.1115
    -7       4.162368       2.023725     -28.760786     -2.3815
    -7       6.473368      -0.300275     -24.743786     -3.9530
    -7       4.503368      -4.098275     -29.639786     -1.5945
    -7       9.695368       3.920725     -27.180786     -1.5935
    -7       5.435368      -3.084275     -23.280787     -2.8715
    -7       0.708368      -1.785275     -27.785786     -1.8460
    -7      -0.303632      -3.272275     -25.681786     -1.7760
    -7      -1.171632      -1.551275     -21.974787     -2.5710
    -7       1.626368       2.023725     -23.709785     -4.5045
    -7       8.156368       1.777725     -22.466785     -2.5565
    -7       8.111368       4.358725     -17.650785     -1.3700
    -7       5.354368       7.476725     -23.117786     -1.7815
    -7       7.068368       1.690725     -16.325787     -1.1075
    -7       5.163368       6.859725     -25.669786     -1.8260
    -7       4.562368       0.883725     -29.481787     -2.2155
    -7       7.387368       6.311725     -21.087786     -2.1310
    -7      -1.745632       2.563725     -17.550785     -0.9775
    -7       3.642368       5.698725     -19.211786     -2.7435
    -7       4.595368      -0.530275     -18.740786     -3.2195
    -8       3.660368       0.796725     -21.495787      6.9545
    -8       3.413368      -1.702275     -25.997786      7.0310
    -8       1.781368       1.420725     -20.148787      7.1175
    -8       2.841368      -3.367275     -20.919786      2.8235
    -8       7.277368      -2.001275     -27.932785      2.5690
    -8       5.829368       3.837725     -24.697786      7.0375
    -8       7.175368       0.775725     -27.578785      2.7335
    -8       6.621368       3.283725     -19.521786      2.8800

$$$$
